52946032
  -OEChem-07092505172D

 42 44  0     1  0  0  0  0  0999 V2000
    9.2365    1.2974    0.0000 S   0  0  0  0  0  0  0  0  0  0  0  0
    8.8764   -2.0149    0.0000 O   0  0  0  0  0  0  0  0  0  0  0  0
   10.5236   -1.4796    0.0000 O   0  0  0  0  0  0  0  0  0  0  0  0
    5.3442    0.4788    0.0000 O   0  0  0  0  0  0  0  0  0  0  0  0
    8.2854   -0.0116    0.0000 N   0  0  3  0  0  0  0  0  0  0  0  0
    6.5715    1.7011    0.0000 N   0  0  0  0  0  0  0  0  0  0  0  0
    8.2854    0.9884    0.0000 C   0  0  1  0  0  0  0  0  0  0  0  0
    7.2771    0.9925    0.0000 C   0  0  1  0  0  0  0  0  0  0  0  0
    9.2365   -0.3207    0.0000 C   0  0  2  0  0  0  0  0  0  0  0  0
    7.2771   -0.0158    0.0000 C   0  0  0  0  0  0  0  0  0  0  0  0
    9.8243    0.4884    0.0000 C   0  0  0  0  0  0  0  0  0  0  0  0
   10.6333    1.0762    0.0000 C   0  0  0  0  0  0  0  0  0  0  0  0
   10.6333   -0.0994    0.0000 C   0  0  0  0  0  0  0  0  0  0  0  0
    9.5455   -1.2717    0.0000 C   0  0  0  0  0  0  0  0  0  0  0  0
    5.6050    1.4442    0.0000 C   0  0  0  0  0  0  0  0  0  0  0  0
    4.8994    2.1528    0.0000 C   0  0  0  0  0  0  0  0  0  0  0  0
    3.9329    1.8960    0.0000 C   0  0  0  0  0  0  0  0  0  0  0  0
    3.2273    2.6045    0.0000 C   0  0  0  0  0  0  0  0  0  0  0  0
    3.6721    0.9306    0.0000 C   0  0  0  0  0  0  0  0  0  0  0  0
    2.2608    2.3477    0.0000 C   0  0  0  0  0  0  0  0  0  0  0  0
    2.7057    0.6737    0.0000 C   0  0  0  0  0  0  0  0  0  0  0  0
    2.0000    1.3823    0.0000 C   0  0  0  0  0  0  0  0  0  0  0  0
    8.1542    1.8282    0.0000 H   0  0  0  0  0  0  0  0  0  0  0  0
    6.7041    0.7558    0.0000 H   0  0  0  0  0  0  0  0  0  0  0  0
    8.7981   -0.7591    0.0000 H   0  0  0  0  0  0  0  0  0  0  0  0
    6.6571   -0.0166    0.0000 H   0  0  0  0  0  0  0  0  0  0  0  0
    7.2788   -0.6358    0.0000 H   0  0  0  0  0  0  0  0  0  0  0  0
   10.9977    0.5746    0.0000 H   0  0  0  0  0  0  0  0  0  0  0  0
   11.1349    1.4406    0.0000 H   0  0  0  0  0  0  0  0  0  0  0  0
   10.2688    1.5777    0.0000 H   0  0  0  0  0  0  0  0  0  0  0  0
   10.2688   -0.6010    0.0000 H   0  0  0  0  0  0  0  0  0  0  0  0
   11.1349   -0.4639    0.0000 H   0  0  0  0  0  0  0  0  0  0  0  0
   10.9977    0.4022    0.0000 H   0  0  0  0  0  0  0  0  0  0  0  0
    6.7332    2.2996    0.0000 H   0  0  0  0  0  0  0  0  0  0  0  0
    9.0679   -2.6045    0.0000 H   0  0  0  0  0  0  0  0  0  0  0  0
    5.4080    2.5074    0.0000 H   0  0  0  0  0  0  0  0  0  0  0  0
    4.6385    2.7152    0.0000 H   0  0  0  0  0  0  0  0  0  0  0  0
    3.3890    3.2031    0.0000 H   0  0  0  0  0  0  0  0  0  0  0  0
    4.1096    0.4913    0.0000 H   0  0  0  0  0  0  0  0  0  0  0  0
    1.8233    2.7870    0.0000 H   0  0  0  0  0  0  0  0  0  0  0  0
    2.5440    0.0752    0.0000 H   0  0  0  0  0  0  0  0  0  0  0  0
    1.4008    1.2231    0.0000 H   0  0  0  0  0  0  0  0  0  0  0  0
  1  7  1  0  0  0  0
  1 11  1  0  0  0  0
  2 14  1  0  0  0  0
  2 35  1  0  0  0  0
  3 14  2  0  0  0  0
  4 15  2  0  0  0  0
  5  7  1  0  0  0  0
  5  9  1  0  0  0  0
  5 10  1  0  0  0  0
  8  6  1  1  0  0  0
  6 15  1  0  0  0  0
  6 34  1  0  0  0  0
  7  8  1  0  0  0  0
  7 23  1  6  0  0  0
  8 10  1  0  0  0  0
  8 24  1  0  0  0  0
  9 11  1  0  0  0  0
  9 14  1  6  0  0  0
  9 25  1  0  0  0  0
 10 26  1  0  0  0  0
 10 27  1  0  0  0  0
 11 12  1  0  0  0  0
 11 13  1  0  0  0  0
 12 28  1  0  0  0  0
 12 29  1  0  0  0  0
 12 30  1  0  0  0  0
 13 31  1  0  0  0  0
 13 32  1  0  0  0  0
 13 33  1  0  0  0  0
 15 16  1  0  0  0  0
 16 17  1  0  0  0  0
 16 36  1  0  0  0  0
 16 37  1  0  0  0  0
 17 18  2  0  0  0  0
 17 19  1  0  0  0  0
 18 20  1  0  0  0  0
 18 38  1  0  0  0  0
 19 21  2  0  0  0  0
 19 39  1  0  0  0  0
 20 22  2  0  0  0  0
 20 40  1  0  0  0  0
 21 22  1  0  0  0  0
 21 41  1  0  0  0  0
 22 42  1  0  0  0  0
M  END
> <PUBCHEM_COMPOUND_CID>
52946032

> <PUBCHEM_COMPOUND_CANONICALIZED>
1

> <PUBCHEM_CACTVS_COMPLEXITY>
462

> <PUBCHEM_CACTVS_HBOND_ACCEPTOR>
5

> <PUBCHEM_CACTVS_HBOND_DONOR>
2

> <PUBCHEM_CACTVS_ROTATABLE_BOND>
4

> <PUBCHEM_CACTVS_SUBSKEYS>
AAADceB7MABAAAAAAAAAAAAAAABYAWAAAAAwAAAABYAAAAABAAAAHgQQCAAADCjF2ASyCIPAAgiIAiHSGAACAABgABAIiIGIAIgKYDKglTGUYAAklgC4iAcYiICOAAAAAAAAAAAAAAAAAAAAAAAAAAAAAA==

> <PUBCHEM_IUPAC_OPENEYE_NAME>
(2S,5R,6R)-3,3-dimethyl-6-[(2-phenylacetyl)amino]-4-thia-1-azabicyclo[3.2.0]heptane-2-carboxylic acid

> <PUBCHEM_IUPAC_CAS_NAME>
(2S,5R,6R)-3,3-dimethyl-6-[(1-oxo-2-phenylethyl)amino]-4-thia-1-azabicyclo[3.2.0]heptane-2-carboxylic acid

> <PUBCHEM_IUPAC_NAME_MARKUP>
(2<I>S</I>,5<I>R</I>,6<I>R</I>)-3,3-dimethyl-6-[(2-phenylacetyl)amino]-4-thia-1-azabicyclo[3.2.0]heptane-2-carboxylic acid

> <PUBCHEM_IUPAC_NAME>
(2S,5R,6R)-3,3-dimethyl-6-[(2-phenylacetyl)amino]-4-thia-1-azabicyclo[3.2.0]heptane-2-carboxylic acid

> <PUBCHEM_IUPAC_SYSTEMATIC_NAME>
(2S,5R,6R)-3,3-dimethyl-6-(2-phenylethanoylamino)-4-thia-1-azabicyclo[3.2.0]heptane-2-carboxylic acid

> <PUBCHEM_IUPAC_TRADITIONAL_NAME>
(2S,5R,6R)-3,3-dimethyl-6-[(2-phenylacetyl)amino]-4-thia-1-azabicyclo[3.2.0]heptane-2-carboxylic acid

> <PUBCHEM_IUPAC_INCHI>
InChI=1S/C16H20N2O3S/c1-16(2)13(15(20)21)18-9-11(14(18)22-16)17-12(19)8-10-6-4-3-5-7-10/h3-7,11,13-14H,8-9H2,1-2H3,(H,17,19)(H,20,21)/t11-,13+,14-/m1/s1

> <PUBCHEM_IUPAC_INCHIKEY>
WAYJCOBMBRPWED-KWCYVHTRSA-N

> <PUBCHEM_XLOGP3_AA>
-0.4

> <PUBCHEM_EXACT_MASS>
320.11946368

> <PUBCHEM_MOLECULAR_FORMULA>
C16H20N2O3S

> <PUBCHEM_MOLECULAR_WEIGHT>
320.4

> <PUBCHEM_SMILES>
CC1([C@@H](N2C[C@H]([C@H]2S1)NC(=O)CC3=CC=CC=C3)C(=O)O)C

> <PUBCHEM_CONNECTIVITY_SMILES>
CC1(C(N2CC(C2S1)NC(=O)CC3=CC=CC=C3)C(=O)O)C

> <PUBCHEM_CACTVS_TPSA>
94.9

> <PUBCHEM_MONOISOTOPIC_WEIGHT>
320.11946368

> <PUBCHEM_TOTAL_CHARGE>
0

> <PUBCHEM_HEAVY_ATOM_COUNT>
22

> <PUBCHEM_ATOM_DEF_STEREO_COUNT>
3

> <PUBCHEM_ATOM_UDEF_STEREO_COUNT>
0

> <PUBCHEM_BOND_DEF_STEREO_COUNT>
0

> <PUBCHEM_BOND_UDEF_STEREO_COUNT>
0

> <PUBCHEM_ISOTOPIC_ATOM_COUNT>
0

> <PUBCHEM_COMPONENT_COUNT>
1

> <PUBCHEM_CACTVS_TAUTO_COUNT>
-1

> <PUBCHEM_COORDINATE_TYPE>
1
5
255

> <PUBCHEM_BONDANNOTATIONS>
17  18  8
17  19  8
18  20  8
19  21  8
20  22  8
21  22  8
8  6  5
7  23  6
9  14  6

$$$$
