4369359
  -OEChem-07092505192D

 43 45  0     1  0  0  0  0  0999 V2000
   12.8677    1.8417    0.0000 F   0  0  0  0  0  0  0  0  0  0  0  0
   12.2278    3.1029    0.0000 F   0  0  0  0  0  0  0  0  0  0  0  0
   10.9666    2.4630    0.0000 F   0  0  0  0  0  0  0  0  0  0  0  0
    3.7321    0.8971    0.0000 F   0  0  0  0  0  0  0  0  0  0  0  0
    3.7321   -3.1029    0.0000 F   0  0  0  0  0  0  0  0  0  0  0  0
    2.0000   -2.1029    0.0000 F   0  0  0  0  0  0  0  0  0  0  0  0
    8.0622   -1.6029    0.0000 O   0  0  0  0  0  0  0  0  0  0  0  0
    8.9282   -0.1029    0.0000 N   0  0  0  0  0  0  0  0  0  0  0  0
   10.6603    0.8971    0.0000 N   0  0  0  0  0  0  0  0  0  0  0  0
   11.6065   -0.4076    0.0000 N   0  0  0  0  0  0  0  0  0  0  0  0
    6.3301   -1.6029    0.0000 N   0  0  0  0  0  0  0  0  0  0  0  0
   12.1901    0.3971    0.0000 N   0  0  0  0  0  0  0  0  0  0  0  0
    8.9282    0.8971    0.0000 C   0  0  0  0  0  0  0  0  0  0  0  0
    9.7942    1.3971    0.0000 C   0  0  0  0  0  0  0  0  0  0  0  0
    9.7942   -0.6029    0.0000 C   0  0  0  0  0  0  0  0  0  0  0  0
   10.6603   -0.1029    0.0000 C   0  0  0  0  0  0  0  0  0  0  0  0
    7.1962   -0.1029    0.0000 C   0  0  0  0  0  0  0  0  0  0  0  0
    6.3301   -0.6029    0.0000 C   0  0  1  0  0  0  0  0  0  0  0  0
    8.0622   -0.6029    0.0000 C   0  0  0  0  0  0  0  0  0  0  0  0
    5.4641   -0.1029    0.0000 C   0  0  0  0  0  0  0  0  0  0  0  0
   11.6065    1.2019    0.0000 C   0  0  0  0  0  0  0  0  0  0  0  0
    4.5981   -0.6029    0.0000 C   0  0  0  0  0  0  0  0  0  0  0  0
   11.9171    2.1524    0.0000 C   0  0  0  0  0  0  0  0  0  0  0  0
    3.7321   -0.1029    0.0000 C   0  0  0  0  0  0  0  0  0  0  0  0
    4.5981   -1.6029    0.0000 C   0  0  0  0  0  0  0  0  0  0  0  0
    3.7321   -2.1029    0.0000 C   0  0  0  0  0  0  0  0  0  0  0  0
    2.8660   -0.6029    0.0000 C   0  0  0  0  0  0  0  0  0  0  0  0
    2.8660   -1.6029    0.0000 C   0  0  0  0  0  0  0  0  0  0  0  0
    8.7162    1.4797    0.0000 H   0  0  0  0  0  0  0  0  0  0  0  0
    8.3176    0.7895    0.0000 H   0  0  0  0  0  0  0  0  0  0  0  0
   10.1928    1.8721    0.0000 H   0  0  0  0  0  0  0  0  0  0  0  0
    9.3957    1.8721    0.0000 H   0  0  0  0  0  0  0  0  0  0  0  0
    9.3957   -1.0778    0.0000 H   0  0  0  0  0  0  0  0  0  0  0  0
   10.1928   -1.0778    0.0000 H   0  0  0  0  0  0  0  0  0  0  0  0
    7.5947    0.3721    0.0000 H   0  0  0  0  0  0  0  0  0  0  0  0
    6.7976    0.3721    0.0000 H   0  0  0  0  0  0  0  0  0  0  0  0
    6.8671   -0.9129    0.0000 H   0  0  0  0  0  0  0  0  0  0  0  0
    5.8626    0.3721    0.0000 H   0  0  0  0  0  0  0  0  0  0  0  0
    5.0656    0.3721    0.0000 H   0  0  0  0  0  0  0  0  0  0  0  0
    6.8671   -1.9129    0.0000 H   0  0  0  0  0  0  0  0  0  0  0  0
    5.7932   -1.9129    0.0000 H   0  0  0  0  0  0  0  0  0  0  0  0
    5.1350   -1.9129    0.0000 H   0  0  0  0  0  0  0  0  0  0  0  0
    2.3291   -0.2929    0.0000 H   0  0  0  0  0  0  0  0  0  0  0  0
  1 23  1  0  0  0  0
  2 23  1  0  0  0  0
  3 23  1  0  0  0  0
  4 24  1  0  0  0  0
  5 26  1  0  0  0  0
  6 28  1  0  0  0  0
  7 19  2  0  0  0  0
  8 13  1  0  0  0  0
  8 15  1  0  0  0  0
  8 19  1  0  0  0  0
  9 14  1  0  0  0  0
  9 16  1  0  0  0  0
  9 21  1  0  0  0  0
 10 12  1  0  0  0  0
 10 16  2  0  0  0  0
 18 11  1  6  0  0  0
 11 40  1  0  0  0  0
 11 41  1  0  0  0  0
 12 21  2  0  0  0  0
 13 14  1  0  0  0  0
 13 29  1  0  0  0  0
 13 30  1  0  0  0  0
 14 31  1  0  0  0  0
 14 32  1  0  0  0  0
 15 16  1  0  0  0  0
 15 33  1  0  0  0  0
 15 34  1  0  0  0  0
 17 18  1  0  0  0  0
 17 19  1  0  0  0  0
 17 35  1  0  0  0  0
 17 36  1  0  0  0  0
 18 20  1  0  0  0  0
 18 37  1  0  0  0  0
 20 22  1  0  0  0  0
 20 38  1  0  0  0  0
 20 39  1  0  0  0  0
 21 23  1  0  0  0  0
 22 24  1  0  0  0  0
 22 25  2  0  0  0  0
 24 27  2  0  0  0  0
 25 26  1  0  0  0  0
 25 42  1  0  0  0  0
 26 28  2  0  0  0  0
 27 28  1  0  0  0  0
 27 43  1  0  0  0  0
M  END
> <PUBCHEM_COMPOUND_CID>
4369359

> <PUBCHEM_COMPOUND_CANONICALIZED>
1

> <PUBCHEM_CACTVS_COMPLEXITY>
566

> <PUBCHEM_CACTVS_HBOND_ACCEPTOR>
10

> <PUBCHEM_CACTVS_HBOND_DONOR>
1

> <PUBCHEM_CACTVS_ROTATABLE_BOND>
4

> <PUBCHEM_CACTVS_SUBSKEYS>
AAADccB7ocAAAAAAAAAAAAAAAAAAAWAAAAA8QAAAAAAAAFgBwAAAHwAYAAAADCjBmxwxEIdMEACqAiNyNAASgAsgAKAVyIEYAIiIaDqA2RGUIAAgngKIiAcYiICOAAAAAAAAAAAAAAAAAAAAAAAAAAAAAA==

> <PUBCHEM_IUPAC_OPENEYE_NAME>
(3R)-3-amino-1-[3-(trifluoromethyl)-6,8-dihydro-5H-[1,2,4]triazolo[4,3-a]pyrazin-7-yl]-4-(2,4,5-trifluorophenyl)butan-1-one

> <PUBCHEM_IUPAC_CAS_NAME>
(3R)-3-amino-1-[3-(trifluoromethyl)-6,8-dihydro-5H-[1,2,4]triazolo[4,3-a]pyrazin-7-yl]-4-(2,4,5-trifluorophenyl)-1-butanone

> <PUBCHEM_IUPAC_NAME_MARKUP>
(3<I>R</I>)-3-amino-1-[3-(trifluoromethyl)-6,8-dihydro-5<I>H</I>-[1,2,4]triazolo[4,3-a]pyrazin-7-yl]-4-(2,4,5-trifluorophenyl)butan-1-one

> <PUBCHEM_IUPAC_NAME>
(3R)-3-amino-1-[3-(trifluoromethyl)-6,8-dihydro-5H-[1,2,4]triazolo[4,3-a]pyrazin-7-yl]-4-(2,4,5-trifluorophenyl)butan-1-one

> <PUBCHEM_IUPAC_SYSTEMATIC_NAME>
(3R)-3-azanyl-1-[3-(trifluoromethyl)-6,8-dihydro-5H-[1,2,4]triazolo[4,3-a]pyrazin-7-yl]-4-[2,4,5-tris(fluoranyl)phenyl]butan-1-one

> <PUBCHEM_IUPAC_TRADITIONAL_NAME>
(3R)-3-amino-1-[3-(trifluoromethyl)-6,8-dihydro-5H-[1,2,4]triazolo[4,3-a]pyrazin-7-yl]-4-(2,4,5-trifluorophenyl)butan-1-one

> <PUBCHEM_IUPAC_INCHI>
InChI=1S/C16H15F6N5O/c17-10-6-12(19)11(18)4-8(10)3-9(23)5-14(28)26-1-2-27-13(7-26)24-25-15(27)16(20,21)22/h4,6,9H,1-3,5,7,23H2/t9-/m1/s1

> <PUBCHEM_IUPAC_INCHIKEY>
MFFMDFFZMYYVKS-SECBINFHSA-N

> <PUBCHEM_XLOGP3_AA>
0.7

> <PUBCHEM_EXACT_MASS>
407.11807909

> <PUBCHEM_MOLECULAR_FORMULA>
C16H15F6N5O

> <PUBCHEM_MOLECULAR_WEIGHT>
407.31

> <PUBCHEM_SMILES>
C1CN2C(=NN=C2C(F)(F)F)CN1C(=O)C[C@@H](CC3=CC(=C(C=C3F)F)F)N

> <PUBCHEM_CONNECTIVITY_SMILES>
C1CN2C(=NN=C2C(F)(F)F)CN1C(=O)CC(CC3=CC(=C(C=C3F)F)F)N

> <PUBCHEM_CACTVS_TPSA>
77

> <PUBCHEM_MONOISOTOPIC_WEIGHT>
407.11807909

> <PUBCHEM_TOTAL_CHARGE>
0

> <PUBCHEM_HEAVY_ATOM_COUNT>
28

> <PUBCHEM_ATOM_DEF_STEREO_COUNT>
1

> <PUBCHEM_ATOM_UDEF_STEREO_COUNT>
0

> <PUBCHEM_BOND_DEF_STEREO_COUNT>
0

> <PUBCHEM_BOND_UDEF_STEREO_COUNT>
0

> <PUBCHEM_ISOTOPIC_ATOM_COUNT>
0

> <PUBCHEM_COMPONENT_COUNT>
1

> <PUBCHEM_CACTVS_TAUTO_COUNT>
-1

> <PUBCHEM_COORDINATE_TYPE>
1
5
255

> <PUBCHEM_BONDANNOTATIONS>
10  12  8
10  16  8
18  11  6
12  21  8
22  24  8
22  25  8
24  27  8
25  26  8
26  28  8
27  28  8
9  16  8
9  21  8

$$$$
